UoNewCastle/spd_s/lines_spd_s_scaled.dss
new line.3559258 phases=3 bus1=12963201 bus2=10932313 linecode=UNKNOWN_LV_Cable_S length=0.42 units=m
new line.3562719 phases=3 bus1=12969818 bus2=9783456 linecode=UNKNOWN_LV_Cable_S length=0.185 units=m
new line.3562717 phases=3 bus1=12968592 bus2=13691505 linecode=UNKNOWN_LV_Cable_M length=1.21 units=m
new line.3562783 phases=3 bus1=9378426 bus2=12934917 linecode=UNKNOWN_LV_Cable_M length=0.439 units=m
new line.3566303 phases=3 bus1=12973133 bus2=11410018 linecode=UNKNOWN_LV_Cable_S length=0.46 units=m
new line.3566335 phases=3 bus1=12970287 bus2=12970598 linecode=Cable_230V_300_AL_WAVE length=23.0 units=m
new line.7355059 phases=3 bus1=17855759 bus2=17855757 linecode=CONNECTOR length=0.38 units=m
new line.7355058 phases=3 bus1=9431551 bus2=17855757 linecode=CONNECTOR length=0.0432 units=m
new line.10702738 phases=3 bus1=12952964 bus2=12953841 linecode=Cable_230V_0.3_AL length=0.269 units=m
new line.10703025 phases=3 bus1=12962925 bus2=12962393 linecode=Cable_230V_0.2_AL length=0.624 units=m
new line.2583788 phases=3 bus1=17855756 bus2=9402917 linecode=Cable_230V_185_AL_WAVEF length=0.349 units=m
new line.2583791 phases=3 bus1=9402917 bus2=12936067 linecode=Cable_230V_185_AL_WAVEF length=0.831 units=m
new line.2583790 phases=3 bus1=17855756 bus2=9402919 linecode=Cable_230V_185_AL_WAVEF length=0.221 units=m
new line.2583789 phases=3 bus1=17855756 bus2=9402918 linecode=Cable_230V_185_AL_WAVEF length=0.234 units=m
new line.10712364 phases=3 bus1=12953841 bus2=12954261 linecode=Cable_230V_0.3_AL length=1.93 units=m
new line.2857892 phases=3 bus1=12954261 bus2=12385154 linecode=Cable_230V_0.0225_CU length=0.569 units=m
new line.2923305 phases=3 bus1=13812808 bus2=14963904 linecode=Cable_230V_25_AL length=0.637 units=m
new line.3165453 phases=3 bus1=12952964 bus2=11627664 linecode=UNKNOWN_LV_Cable_S length=0.56 units=m
new line.3562693 phases=3 bus1=12958923 bus2=9783454 linecode=UNKNOWN_LV_Cable_S length=0.32 units=m
new line.10699975 phases=3 bus1=12959135 bus2=12958923 linecode=Cable_230V_0.2_AL length=1.39 units=m
new line.3562694 phases=3 bus1=12959135 bus2=13601753 linecode=Cable_230V_0.0225_CU length=1.14 units=m
new line.3562729 phases=3 bus1=12971246 bus2=12308114 linecode=Cable_230V_0.0225_CU length=0.905 units=m
new line.3566306 phases=3 bus1=12973133 bus2=10915895 linecode=Cable_230V_0.0225_CU length=0.9 units=m
new line.10731226 phases=3 bus1=12973133 bus2=12973244 linecode=Cable_230V_0.3_AL length=1.38 units=m
new line.10712362 phases=3 bus1=12973244 bus2=12952964 linecode=Cable_230V_0.3_AL length=1.13 units=m
new line.3560747 phases=3 bus1=12973244 bus2=13357779 linecode=UNKNOWN_LV_Cable_S length=0.602 units=m
new line.3560748 phases=3 bus1=12973244 bus2=13601746 linecode=UNKNOWN_LV_Cable_M length=0.556 units=m
new line.3562720 phases=3 bus1=12971246 bus2=12970285 linecode=Cable_230V_0.0225_CU length=0.123 units=m
new line.3562752 phases=3 bus1=12970257 bus2=13572881 linecode=Cable_230V_0.0225_CU length=1.17 units=m
new line.3561198 phases=3 bus1=12970256 bus2=12208987 linecode=Cable_230V_0.0225_CU length=0.861 units=m
new line.3562795 phases=3 bus1=12934945 bus2=9389565 linecode=Cable_230V_240_AL_CONSAC length=0.398 units=m
new line.10703054 phases=3 bus1=12970287 bus2=17855763 linecode=Cable_230V_0.2_AL length=3.55 units=m
new line.3562796 phases=3 bus1=17855763 bus2=9290727 linecode=Cable_230V_0.2_AL length=0.216 units=m
new line.10699989 phases=3 bus1=12934948 bus2=12970598 linecode=Cable_230V_0.2_AL length=0.638 units=m
new line.3562670 phases=3 bus1=12934948 bus2=17855760 linecode=Cable_230V_185_AL length=0.683 units=m
new line.3562756 phases=3 bus1=17855763 bus2=9390514 linecode=UNKNOWN_LV_Cable_M length=0.216 units=m
new line.3560749 phases=3 bus1=12953841 bus2=10932282 linecode=Cable_230V_0.0225_CU length=0.582 units=m
new line.3561197 phases=3 bus1=12934941 bus2=12807627 linecode=Cable_230V_0.04_CU length=1.05 units=m
new line.3562669 phases=3 bus1=12954261 bus2=12184416 linecode=Cable_230V_0.0225_CU length=0.626 units=m
new line.3562767 phases=3 bus1=12970259 bus2=17855762 linecode=Cable_230V_0.0225_CU length=0.423 units=m
new line.3562671 phases=3 bus1=12934951 bus2=17855759 linecode=Cable_230V_185_AL length=0.694 units=m
new line.4231731 phases=3 bus1=12934951 bus2=12936067 linecode=Cable_230V_300_CU length=1.71 units=m
new line.10699982 phases=3 bus1=12962393 bus2=12961574 linecode=Cable_230V_0.1_AL length=2.92 units=m
new line.3562696 phases=3 bus1=12961574 bus2=11650907 linecode=Cable_230V_0.0225_CU length=1.24 units=m
new line.10703026 phases=3 bus1=12959365 bus2=12959135 linecode=Cable_230V_0.15_AL length=3.02 units=m
new line.3562695 phases=3 bus1=12959365 bus2=11068336 linecode=Cable_230V_0.0225_CU length=1.09 units=m
new line.10712365 phases=3 bus1=12963305 bus2=12971246 linecode=Cable_230V_0.3_AL length=1.89 units=m
new line.10703003 phases=3 bus1=12963201 bus2=12963305 linecode=Cable_230V_0.3_AL length=0.554 units=m
new line.3566312 phases=3 bus1=12963305 bus2=10493341 linecode=UNKNOWN_LV_Cable_S length=0.641 units=m
new line.3566344 phases=3 bus1=12970285 bus2=11730840 linecode=Cable_230V_25_AL length=0.263 units=m
new line.10702550 phases=3 bus1=12954261 bus2=12958976 linecode=Cable_230V_0.3_AL length=1.58 units=m
new line.3733037 phases=3 bus1=12958976 bus2=12308113 linecode=UNKNOWN_LV_Cable_S length=0.669 units=m
new line.6822690 phases=3 bus1=12970257 bus2=9783458 linecode=UNKNOWN_LV_Cable_S length=0.357 units=m
new line.10699724 phases=3 bus1=17857129 bus2=12936066 linecode=UNKNOWN_LV_Cable_S length=0.0041 units=m
new line.10699726 phases=3 bus1=12934917 bus2=12934939 linecode=Cable_230V_0.2_CU length=4.15 units=m
new line.10703015 phases=3 bus1=12934967 bus2=14963904 linecode=Cable_230V_0.2_AL length=0.921 units=m
new line.10699840 phases=3 bus1=9290727 bus2=12934967 linecode=Cable_230V_0.2_AL length=1.88 units=m
new line.10699981 phases=3 bus1=12970260 bus2=12970262 linecode=Cable_230V_0.3_AL length=0.998 units=m
new line.10703739 phases=3 bus1=12934965 bus2=12970287 linecode=Cable_230V_0.2_AL length=0.457 units=m
new line.10699978 phases=3 bus1=9356220 bus2=12934965 linecode=Cable_230V_0.2_AL length=0.0654 units=m
new line.10703016 phases=3 bus1=12934838 bus2=12934945 linecode=Cable_230V_0.3_CU length=1.42 units=m
new line.10699976 phases=3 bus1=12934837 bus2=12934838 linecode=Cable_230V_0.3_CU length=0.796 units=m
new line.10699973 phases=3 bus1=12959079 bus2=12970256 linecode=Cable_230V_0.1_CU length=2.42 units=m
new line.10718595 phases=3 bus1=12959079 bus2=12970259 linecode=Cable_230V_0.2_CU length=2.17 units=m
new line.10703033 phases=3 bus1=12961574 bus2=17855761 linecode=Cable_230V_0.1_AL length=0.0218 units=m
new line.10699979 phases=3 bus1=17855761 bus2=12959365 linecode=Cable_230V_0.15_AL length=3.02 units=m
new line.10721309 phases=3 bus1=12972035 bus2=12973133 linecode=Cable_230V_0.3_AL length=2.8 units=m
new line.10700517 phases=3 bus1=12972035 bus2=12972223 linecode=Cable_230V_0.0225_CU length=0.159 units=m
new line.10702410 phases=3 bus1=12810038 bus2=12934941 linecode=Cable_230V_0.2_CU length=3.54 units=m
new line.10703008 phases=3 bus1=12934939 bus2=12810038 linecode=Cable_230V_0.2_CU length=0.238 units=m
new line.10702405 phases=3 bus1=12936066 bus2=13408540 linecode=UNKNOWN_LV_Cable_S length=1.06 units=m
new line.10703019 phases=3 bus1=12958923 bus2=12993671 linecode=Cable_230V_0.2_AL length=0.403 units=m
new line.10703012 phases=3 bus1=12963145 bus2=12963201 linecode=Cable_230V_0.3_AL length=0.658 units=m
new line.10714828 phases=3 bus1=16670850 bus2=12970257 linecode=Cable_230V_0.1_CU length=1.73 units=m
new line.10703013 phases=3 bus1=12970256 bus2=16670850 linecode=Cable_230V_0.1_CU length=4.3 units=m
new line.10703051 phases=3 bus1=12970598 bus2=12936056 linecode=Cable_230V_0.2_AL length=0.819 units=m
new line.2583797 phases=3 bus1=9402919 bus2=12936056 linecode=Cable_230V_185_AL_WAVEF length=0.6 units=m
new line.2583799 phases=3 bus1=12936056 bus2=12936066 linecode=Cable_230V_25_AL length=0.463 units=m
new line.10712384 phases=3 bus1=12969125 bus2=12969818 linecode=Cable_230V_0.3_AL length=0.486 units=m
new line.10703022 phases=3 bus1=12968592 bus2=12969125 linecode=Cable_230V_0.3_AL length=3.21 units=m
new line.10703757 phases=3 bus1=12970262 bus2=12970263 linecode=Cable_230V_0.3_AL length=3.31 units=m
new line.10709001 phases=3 bus1=12971810 bus2=13601748 linecode=Cable_230V_0.0125_CU length=0.353 units=m
new line.10708973 phases=3 bus1=12972223 bus2=11113663 linecode=Cable_230V_0.0225_CU length=0.418 units=m
new line.10712363 phases=3 bus1=12934941 bus2=12934942 linecode=Cable_230V_0.2_CU length=2.78 units=m
new line.10718596 phases=3 bus1=12934942 bus2=12959079 linecode=Cable_230V_0.2_CU length=1.81 units=m
new line.10703027 phases=3 bus1=12970284 bus2=12968592 linecode=Cable_230V_0.3_AL length=3.72 units=m
new line.10715425 phases=3 bus1=12970263 bus2=12970284 linecode=Cable_230V_0.3_AL length=3.07 units=m
new line.10721314 phases=3 bus1=12971481 bus2=12972035 linecode=Cable_230V_0.3_AL length=0.486 units=m
new line.10700534 phases=3 bus1=12971481 bus2=12971810 linecode=Cable_230V_0.0125_CU length=0.358 units=m
new line.10718600 phases=3 bus1=12971246 bus2=12971481 linecode=Cable_230V_0.3_AL length=0.893 units=m
new line.10718605 phases=3 bus1=12969818 bus2=12936053 linecode=Cable_230V_0.3_AL length=4.99 units=m
new line.10718602 phases=3 bus1=12934835 bus2=12934837 linecode=Cable_230V_0.3_AL length=0.246 units=m
new line.10712374 phases=3 bus1=12958976 bus2=12934835 linecode=Cable_230V_0.3_AL length=0.815 units=m
new line.10718603 phases=3 bus1=12958003 bus2=12958438 linecode=Cable_230V_0.2_AL length=3.43 units=m
new line.11559424 phases=3 bus1=9108515 bus2=9431551 linecode=BUSBAR length=0.174 units=m
new line.11559435 phases=3 bus1=9108515 bus2=9431553 linecode=BUSBAR length=0.138 units=m
new line.6745717 phases=3 bus1=17855756 bus2=9402916 linecode=Cable_230V_185_AL_WAVEF length=0.286 units=m
new line.2583792 phases=3 bus1=9402916 bus2=12936053 linecode=Cable_230V_185_AL_WAVEF length=0.234 units=m
new line.10699988 phases=3 bus1=12936055 bus2=12962925 linecode=Cable_230V_0.2_AL length=3.02 units=m
new line.2583798 phases=3 bus1=9402918 bus2=12936055 linecode=Cable_230V_185_AL_WAVEF length=0.515 units=m
new line.2598906 phases=3 bus1=12810038 bus2=9854615 linecode=Cable_230V_4_CU length=0.462 units=m
new line.3165501 phases=3 bus1=9365422 bus2=12970260 linecode=UNKNOWN_LV_Cable_M length=0.0615 units=m
new line.3566334 phases=3 bus1=17855762 bus2=9365422 linecode=UNKNOWN_LV_Cable_M length=0.216 units=m
new line.3562707 phases=3 bus1=12962925 bus2=9783455 linecode=UNKNOWN_LV_Cable_S length=0.412 units=m
new line.3559260 phases=3 bus1=12963145 bus2=12156586 linecode=UNKNOWN_LV_Cable_S length=0.998 units=m
new line.3559259 phases=3 bus1=12963305 bus2=12807645 linecode=Cable_230V_0.0225_CU length=1.25 units=m
new line.3560759 phases=3 bus1=12954261 bus2=10511265 linecode=Cable_230V_0.0225_CU length=0.83 units=m
new line.3560859 phases=3 bus1=17855763 bus2=9290728 linecode=Cable_230V_0.03_AL length=0.218 units=m
new line.10699798 phases=3 bus1=9290728 bus2=12963145 linecode=Cable_230V_0.3_AL length=1.97 units=m
new line.3561176 phases=3 bus1=12934939 bus2=13691477 linecode=Cable_230V_0.04_CU length=1.18 units=m
new line.3562678 phases=3 bus1=12958003 bus2=10652242 linecode=Cable_230V_0.0225_CU length=1.2 units=m
new line.3562675 phases=3 bus1=12958976 bus2=13357776 linecode=UNKNOWN_LV_Cable_S length=0.699 units=m
new line.3562679 phases=3 bus1=12934838 bus2=13357773 linecode=Cable_230V_0.06_CU length=0.613 units=m
new line.10702579 phases=3 bus1=14963904 bus2=12934968 linecode=Cable_230V_0.2_AL length=0.872 units=m
new line.10712379 phases=3 bus1=12934968 bus2=12958003 linecode=Cable_230V_0.2_AL length=3.23 units=m
new line.3562677 phases=3 bus1=12934968 bus2=13624269 linecode=Cable_230V_0.0225_CU length=1.25 units=m
new line.3562676 phases=3 bus1=12934967 bus2=9783449 linecode=UNKNOWN_LV_Cable_S length=0.517 units=m
new line.3562680 phases=3 bus1=12958438 bus2=11729147 linecode=Cable_230V_0.0225_CU length=1.0 units=m
new line.3562718 phases=3 bus1=12969125 bus2=13357784 linecode=Cable_230V_0.0225_CU length=1.17 units=m
new line.3562705 phases=3 bus1=12962393 bus2=11910744 linecode=Cable_230V_0.0225_CU length=0.826 units=m
new line.3562706 phases=3 bus1=12962393 bus2=12185636 linecode=UNKNOWN_LV_Cable_S length=0.645 units=m
new line.3562708 phases=3 bus1=12970284 bus2=13601751 linecode=Cable_230V_0.04_CU length=1.02 units=m
new line.3566293 phases=3 bus1=12972035 bus2=11068335 linecode=Cable_230V_0.0225_CU length=0.635 units=m
new line.3566333 phases=3 bus1=9382652 bus2=17855762 linecode=Cable_230V_0.0225_CU length=0.192 units=m
new line.3566361 phases=3 bus1=12993673 bus2=12993671 linecode=Cable_230V_185_AL_WAVEF length=0.515 units=m
new line.10721628 phases=3 bus1=12958438 bus2=12993673 linecode=Cable_230V_0.2_AL length=0.873 units=m
new line.7355060 phases=3 bus1=17855760 bus2=17855758 linecode=CONNECTOR length=0.352 units=m
new line.7355061 phases=3 bus1=9431553 bus2=17855758 linecode=CONNECTOR length=0.0432 units=m
new line.5880920 phases=3 bus1=16670850 bus2=16419830 linecode=Cable_230V_0.0125_CU length=0.512 units=m
new line.5880922 phases=3 bus1=16419830 bus2=11278631 linecode=Cable_230V_0.0125_CU length=0.391 units=m
new line.6859188 phases=3 bus1=12970263 bus2=13691475 linecode=Cable_230V_0.0225_CU length=0.914 units=m
new line.6932562 phases=3 bus1=12963145 bus2=13357787 linecode=UNKNOWN_LV_Cable_S length=0.669 units=m
new line.7043294 phases=3 bus1=12934835 bus2=11730483 linecode=UNKNOWN_LV_Cable_S length=0.531 units=m
new line.7043288 phases=3 bus1=12934942 bus2=9783457 linecode=UNKNOWN_LV_Cable_S length=0.206 units=m
new line.10700532 phases=3 bus1=12934965 bus2=12934954 linecode=Cable_230V_0.06_CU length=0.336 units=m
new line.10700533 phases=3 bus1=12970262 bus2=12934915 linecode=UNKNOWN_LV_Cable_S length=0.092 units=m
new line.10709009 phases=3 bus1=12934954 bus2=12156592 linecode=Cable_230V_0.06_CU length=0.804 units=m
new line.10709015 phases=3 bus1=12934915 bus2=9783459 linecode=UNKNOWN_LV_Cable_S length=0.208 units=m
new line.3060210 phases=3 bus1=14587801 bus2=13728130 linecode=Cable_230V_0.0225_CU length=0.477 units=m
new line.6940436 phases=3 bus1=14710399 bus2=13454745 linecode=UNKNOWN_LV_Cable_S length=1.19 units=m
new line.6814240 phases=3 bus1=13454780 bus2=14587801 linecode=Cable_230V_0.0225_CU length=0.299 units=m
new line.9677488 phases=3 bus1=13454739 bus2=13454780 linecode=Cable_230V_0.3_AL length=3.46 units=m
new line.9686608 phases=3 bus1=13435075 bus2=9290701 linecode=Cable_230V_0.3_AL length=4.44 units=m
new line.2483713 phases=3 bus1=14711422 bus2=9739760 linecode=UNKNOWN_LV_Cable_S length=0.802 units=m
new line.2911360 phases=3 bus1=13457819 bus2=9739976 linecode=UNKNOWN_LV_Cable_S length=0.284 units=m
new line.9676395 phases=3 bus1=13457819 bus2=14746714 linecode=UNKNOWN_LV_Cable_M length=0.26 units=m
new line.3263490 phases=3 bus1=14746714 bus2=13714731 linecode=UNKNOWN_LV_Cable_M length=1.06 units=m
new line.3268226 phases=3 bus1=9290703 bus2=13454765 linecode=Cable_230V_185_AL length=4.62 units=m
new line.5291658 phases=3 bus1=9290701 bus2=17655572 linecode=Cable_230V_0.03_AL length=0.216 units=m
new line.3268227 phases=3 bus1=17655572 bus2=9317694 linecode=UNKNOWN_LV_Cable_M length=0.216 units=m
new line.3268228 phases=3 bus1=13454765 bus2=9290699 linecode=Cable_230V_185_AL length=0.393 units=m
new line.6665931 phases=3 bus1=9290699 bus2=17655572 linecode=Cable_230V_185_AL length=0.25 units=m
new line.3409551 phases=3 bus1=14746713 bus2=9739756 linecode=Cable_230V_0.0125_CU length=4.51 units=m
new line.3522062 phases=3 bus1=14711419 bus2=14711417 linecode=Cable_230V_300_AL_CONSAC length=2.11 units=m
new line.9686767 phases=3 bus1=13454780 bus2=14756890 linecode=Cable_230V_0.3_AL length=4.39 units=m
new line.3680843 phases=3 bus1=14756890 bus2=9739974 linecode=UNKNOWN_LV_Cable_S length=0.254 units=m
new line.4774745 phases=3 bus1=17655571 bus2=9290703 linecode=Cable_230V_185_AL length=0.529 units=m
new line.4472994 phases=3 bus1=17655571 bus2=9290702 linecode=Cable_230V_0.03_AL length=0.216 units=m
new line.9677096 phases=3 bus1=14746713 bus2=13454737 linecode=Cable_230V_0.3_AL length=1.93 units=m
new line.6940437 phases=3 bus1=14711422 bus2=13454737 linecode=Cable_230V_4_CU length=0.232 units=m
new line.4472996 phases=3 bus1=13454737 bus2=9404445 linecode=Cable_230V_185_AL_WAVEF length=1.03 units=m
new line.9673468 phases=3 bus1=9290702 bus2=13457817 linecode=Cable_230V_0.3_AL length=0.925 units=m
new line.4677573 phases=3 bus1=13457817 bus2=9739977 linecode=UNKNOWN_LV_Cable_S length=0.245 units=m
new line.4772802 phases=3 bus1=9317695 bus2=17655571 linecode=UNKNOWN_LV_Cable_M length=0.218 units=m
new line.5291846 phases=3 bus1=9290700 bus2=17655572 linecode=Cable_230V_0.2_AL length=0.503 units=m
new line.9689828 phases=3 bus1=14710399 bus2=9290700 linecode=Cable_230V_0.2_AL length=2.39 units=m
new line.6575528 phases=3 bus1=13435075 bus2=13355047 linecode=Cable_230V_0.15_CU length=2.0 units=m
new line.6690852 phases=3 bus1=16521466 bus2=10792061 linecode=Cable_230V_0.0225_CU length=0.774 units=m
new line.9678089 phases=3 bus1=13435077 bus2=13435075 linecode=Cable_230V_0.3_AL length=2.74 units=m
new line.9673605 phases=3 bus1=14710390 bus2=13435077 linecode=Cable_230V_0.3_AL length=2.62 units=m
new line.9678085 phases=3 bus1=13454782 bus2=14710390 linecode=Cable_230V_0.3_CU length=2.97 units=m
new line.9673608 phases=3 bus1=14711417 bus2=13454782 linecode=Cable_230V_0.3_CU length=0.213 units=m
new line.9679561 phases=3 bus1=13454743 bus2=13457819 linecode=UNKNOWN_LV_Cable_M length=3.16 units=m
new line.5933144 phases=3 bus1=13454743 bus2=16521466 linecode=Cable_230V_0.0225_CU length=0.323 units=m
new line.9673321 phases=3 bus1=13435074 bus2=13454743 linecode=UNKNOWN_LV_Cable_M length=1.17 units=m
new line.9673447 phases=3 bus1=13435074 bus2=14746712 linecode=Cable_230V_0.2_AL length=4.56 units=m
new line.9676967 phases=3 bus1=14746712 bus2=14711418 linecode=Cable_230V_0.2_AL length=1.35 units=m
new line.9677162 phases=3 bus1=14746710 bus2=14746713 linecode=Cable_230V_0.3_AL length=1.37 units=m
new line.9677440 phases=3 bus1=14756890 bus2=14746710 linecode=Cable_230V_0.3_AL length=0.734 units=m
new line.9677888 phases=3 bus1=13435072 bus2=13454739 linecode=Cable_230V_0.3_AL length=3.46 units=m
new line.9678575 phases=3 bus1=13457817 bus2=13435072 linecode=Cable_230V_0.3_AL length=1.03 units=m
new line.9688715 phases=3 bus1=14711418 bus2=13454733 linecode=Cable_230V_0.2_AL length=1.7 units=m
new line.9684951 phases=3 bus1=13454733 bus2=14710399 linecode=Cable_230V_0.2_AL length=5.61 units=m
new line.3262515 phases=3 bus1=13454745 bus2=9739755 linecode=UNKNOWN_LV_Cable_S length=0.753 units=m
new line.3288379 phases=3 bus1=14746712 bus2=11083673 linecode=Cable_230V_95_CU length=1.2 units=m
new line.3450203 phases=3 bus1=14746710 bus2=13507545 linecode=Cable_230V_0.0225_CU length=1.18 units=m
new line.11559440 phases=3 bus1=9108515 bus2=9431552 linecode=BUSBAR length=0.108 units=m
new line.7236246 phases=3 bus1=9431552 bus2=17655573 linecode=CONNECTOR length=0.0432 units=m
new line.4269430 phases=3 bus1=14711419 bus2=17655574 linecode=Cable_230V_185_AL length=0.725 units=m
new line.7236245 phases=3 bus1=17655574 bus2=17655573 linecode=CONNECTOR length=0.323 units=m
new line.3753016 phases=3 bus1=13454739 bus2=12317603 linecode=Cable_230V_0.0225_CU length=0.805 units=m
new line.3836059 phases=3 bus1=13454733 bus2=9739753 linecode=UNKNOWN_LV_Cable_S length=0.189 units=m
new line.9684469 phases=3 bus1=14746714 bus2=14711416 linecode=UNKNOWN_LV_Cable_M length=4.97 units=m
new line.3851540 phases=3 bus1=14711416 bus2=12317602 linecode=UNKNOWN_LV_Cable_M length=1.03 units=m
new line.4021019 phases=3 bus1=13435072 bus2=12848124 linecode=Cable_230V_0.0225_CU length=0.818 units=m
new line.4271380 phases=3 bus1=13435077 bus2=13513456 linecode=Cable_230V_0.0225_CU length=1.52 units=m
new line.4269429 phases=3 bus1=13454782 bus2=9739759 linecode=Cable_230V_0.0125_CU length=2.28 units=m
new line.6892092 phases=3 bus1=13435077 bus2=9739978 linecode=UNKNOWN_LV_Cable_S length=0.529 units=m
new line.6922329 phases=3 bus1=17655571 bus2=9367001 linecode=Cable_230V_0.3_AL length=0.2 units=m
new line.9689749 phases=3 bus1=14711416 bus2=14755909 linecode=UNKNOWN_LV_Cable_M length=0.524 units=m
new line.3246478 phases=3 bus1=14495371 bus2=17636403 linecode=Cable_230V_185_AL length=0.666 units=m
new line.7214058 phases=3 bus1=17636403 bus2=17636402 linecode=CONNECTOR length=0.27 units=m
new line.2386684 phases=3 bus1=17636404 bus2=9356220 linecode=UNKNOWN_LV_Cable_M length=0.216 units=m
new line.4244300 phases=3 bus1=9360872 bus2=17636404 linecode=UNKNOWN_LV_Cable_M length=0.218 units=m
new line.4761671 phases=3 bus1=14495371 bus2=9326133 linecode=Cable_230V_300_AL_WAVE length=24.6 units=m
new line.3251288 phases=3 bus1=9326133 bus2=17636404 linecode=Cable_230V_0.3_CU length=0.216 units=m
new line.11559428 phases=3 bus1=9108515 bus2=9431554 linecode=BUSBAR length=0.089 units=m
new line.7214043 phases=3 bus1=9431554 bus2=17636402 linecode=CONNECTOR length=0.0432 units=m
new line.2954358 phases=3 bus1=9317041 bus2=17636404 linecode=Cable_230V_0.03_AL length=0.219 units=m
new line.3208286 phases=3 bus1=13604797 bus2=13595203 linecode=UNKNOWN_LV_Cable_M length=1.67 units=m
new line.6226777 phases=3 bus1=16875457 bus2=16875458 linecode=Cable_230V_0.06_AL length=0.4 units=m
new line.10790705 phases=3 bus1=13485937 bus2=13485975 linecode=Cable_230V_0.3_AL length=0.861 units=m
new line.2401001 phases=3 bus1=13485934 bus2=9389646 linecode=Cable_230V_240_AL_CONSAC length=0.265 units=m
new line.2452288 phases=3 bus1=13485937 bus2=12817081 linecode=Cable_230V_0.0225_CU length=1.42 units=m
new line.2484040 phases=3 bus1=13363295 bus2=11910740 linecode=UNKNOWN_LV_Cable_S length=1.01 units=m
new line.2638922 phases=3 bus1=13485982 bus2=9760720 linecode=UNKNOWN_LV_Cable_S length=0.317 units=m
new line.3332785 phases=3 bus1=13485934 bus2=17874063 linecode=UNKNOWN_LV_Cable_M length=0.182 units=m
new line.2870699 phases=3 bus1=9369084 bus2=17874063 linecode=Cable_230V_0.3_AL length=0.224 units=m
new line.2996616 phases=3 bus1=9369083 bus2=17874063 linecode=Cable_230V_0.2_AL length=0.216 units=m
new line.3196751 phases=3 bus1=13485975 bus2=9638199 linecode=UNKNOWN_LV_Cable_S length=0.363 units=m
new line.4720210 phases=3 bus1=12725183 bus2=9369083 linecode=Cable_230V_0.2_AL length=3.75 units=m
new line.3729615 phases=3 bus1=12725183 bus2=10484937 linecode=Cable_230V_0.04_AL length=1.4 units=m
new line.4044970 phases=3 bus1=13363292 bus2=11650515 linecode=UNKNOWN_LV_Cable_M length=1.15 units=m
new line.4152559 phases=3 bus1=17874064 bus2=11978903 linecode=Cable_230V_0.04_CU length=1.1 units=m
new line.10795243 phases=3 bus1=13485975 bus2=13485976 linecode=Cable_230V_0.3_AL length=2.96 units=m
new line.4270498 phases=3 bus1=13485976 bus2=12327065 linecode=Cable_230V_0.0225_CU length=1.47 units=m
new line.10793736 phases=3 bus1=13363295 bus2=13485936 linecode=Cable_230V_0.3_AL length=0.426 units=m
new line.10808773 phases=3 bus1=13485936 bus2=13363292 linecode=Cable_230V_0.3_AL length=0.902 units=m
new line.4719817 phases=3 bus1=13485936 bus2=9615535 linecode=Cable_230V_4_CU length=0.418 units=m
new line.4956110 phases=3 bus1=13604797 bus2=11730481 linecode=UNKNOWN_LV_Cable_S length=1.35 units=m
new line.10798778 phases=3 bus1=13485931 bus2=13485937 linecode=Cable_230V_0.2_AL length=2.71 units=m
new line.5145385 phases=3 bus1=13485931 bus2=13357796 linecode=Cable_230V_0.0225_CU length=1.17 units=m
new line.7368994 phases=3 bus1=17874058 bus2=17874057 linecode=CONNECTOR length=0.297 units=m
new line.10819483 phases=3 bus1=13363289 bus2=13604797 linecode=Cable_230V_0.3_AL length=1.85 units=m
new line.6933573 phases=3 bus1=13363289 bus2=9641498 linecode=UNKNOWN_LV_Cable_S length=0.437 units=m
new line.10808429 phases=3 bus1=13485976 bus2=13485978 linecode=Cable_230V_0.3_AL length=2.54 units=m
new line.10790536 phases=3 bus1=13485978 bus2=13485979 linecode=Cable_230V_0.3_AL length=1.03 units=m
new line.10790823 phases=3 bus1=13363292 bus2=13363294 linecode=UNKNOWN_LV_Cable_S length=0.393 units=m
new line.10791055 phases=3 bus1=9369082 bus2=13485931 linecode=Cable_230V_0.2_AL length=7.09 units=m
new line.2607408 phases=3 bus1=17874063 bus2=9369082 linecode=Cable_230V_300_AL_WAVE length=1.12 units=m
new line.10801169 phases=3 bus1=12725181 bus2=12725183 linecode=Cable_230V_0.2_AL length=3.35 units=m
new line.10791264 phases=3 bus1=17874064 bus2=12725181 linecode=Cable_230V_0.2_AL length=3.93 units=m
new line.10791367 phases=3 bus1=13623088 bus2=13623117 linecode=UNKNOWN_LV_Cable_S length=0.421 units=m
new line.10794191 phases=3 bus1=13485982 bus2=13486010 linecode=Cable_230V_0.3_AL length=3.83 units=m
new line.10800206 phases=3 bus1=16875457 bus2=12725180 linecode=Cable_230V_0.2_AL length=3.59 units=m
new line.10794813 phases=3 bus1=12725180 bus2=17874064 linecode=Cable_230V_0.2_AL length=4.31 units=m
new line.10800550 phases=3 bus1=13485979 bus2=13485981 linecode=Cable_230V_0.3_AL length=4.0 units=m
new line.10797973 phases=3 bus1=13485981 bus2=13485982 linecode=Cable_230V_0.3_AL length=0.33 units=m
new line.10803591 phases=3 bus1=13623117 bus2=9790970 linecode=UNKNOWN_LV_Cable_S length=1.02 units=m
new line.10803655 phases=3 bus1=13604669 bus2=13624263 linecode=UNKNOWN_LV_Cable_S length=0.434 units=m
new line.10807201 phases=3 bus1=13604797 bus2=13604667 linecode=Cable_230V_0.3_AL length=2.3 units=m
new line.10808132 phases=3 bus1=13363292 bus2=13363291 linecode=Cable_230V_0.3_AL length=0.871 units=m
new line.10807657 phases=3 bus1=13363291 bus2=13363289 linecode=Cable_230V_0.3_AL length=3.31 units=m
new line.11559434 phases=3 bus1=9108515 bus2=9431555 linecode=BUSBAR length=0.089 units=m
new line.7368989 phases=3 bus1=9431555 bus2=17874057 linecode=CONNECTOR length=0.0432 units=m
new line.2805080 phases=3 bus1=12725180 bus2=10628787 linecode=Cable_230V_25_AL_ASCT length=1.38 units=m
new line.3258136 phases=3 bus1=13604667 bus2=10905410 linecode=UNKNOWN_LV_Cable_S length=1.17 units=m
new line.3325565 phases=3 bus1=13363295 bus2=13595202 linecode=UNKNOWN_LV_Cable_S length=1.12 units=m
new line.10823729 phases=3 bus1=13623088 bus2=13623087 linecode=Cable_230V_0.3_AL length=1.46 units=m
new line.3333140 phases=3 bus1=13623087 bus2=9369084 linecode=Cable_230V_0.3_AL length=3.56 units=m
new line.3645343 phases=3 bus1=13363291 bus2=11335818 linecode=UNKNOWN_LV_Cable_S length=0.939 units=m
new line.3790875 phases=3 bus1=13363294 bus2=9635197 linecode=UNKNOWN_LV_Cable_S length=1.2 units=m
new line.4072409 phases=3 bus1=13486010 bus2=13485933 linecode=Cable_230V_0.2_AL length=1.62 units=m
new line.4171892 phases=3 bus1=13485933 bus2=17874058 linecode=Cable_230V_185_AL length=0.677 units=m
new line.4134519 phases=3 bus1=13486010 bus2=13691508 linecode=Cable_230V_0.0225_CU length=1.41 units=m
new line.4720209 phases=3 bus1=13485981 bus2=13601756 linecode=Cable_230V_0.0225_CU length=1.52 units=m
new line.5657490 phases=3 bus1=12725180 bus2=10956350 linecode=Cable_230V_0.0125_CU length=1.74 units=m
new line.6226770 phases=3 bus1=16875458 bus2=11983736 linecode=Cable_230V_0.06_AL length=0.606 units=m
new line.6596117 phases=3 bus1=13485979 bus2=13725341 linecode=Cable_230V_0.0225_CU length=1.49 units=m
new line.7000797 phases=3 bus1=12725181 bus2=10803945 linecode=Cable_230V_0.04_CU length=0.964 units=m
new line.10795964 phases=3 bus1=13363294 bus2=11068333 linecode=UNKNOWN_LV_Cable_S length=1.33 units=m
new line.10790487 phases=3 bus1=9389645 bus2=13363295 linecode=Cable_230V_0.3_AL length=1.45 units=m
new line.10790616 phases=3 bus1=13363297 bus2=16875457 linecode=Cable_230V_0.2_AL length=1.03 units=m
new line.10823730 phases=3 bus1=13623118 bus2=13623088 linecode=Cable_230V_0.3_AL length=1.6 units=m
new line.10791390 phases=3 bus1=13623118 bus2=13604669 linecode=UNKNOWN_LV_Cable_S length=0.645 units=m
new line.10819036 phases=3 bus1=13604667 bus2=13623118 linecode=Cable_230V_0.3_AL length=1.91 units=m